
**** 08/31/16 11:34:02 ****** PSpice 17.2.0 (March 2016) ****** ID# 0 ********

<<<<<<< HEAD
 ** Profile: "SCHEMATIC1-time"  [ c:\users\n\documents\github\plethysmograph\orcad files\plethysmograph amp\plethysmograph amp-pspice
=======
**** 08/30/16 05:35:56 ***** PSpice 16.6.0 (October 2012) ***** ID# 0 ********

 ** Profile: "SCHEMATIC1-time"  [ C:\Users\Thomas\Desktop\Mapper\it - teknologi\thered_semester\elektronik\Plethysmograph\Orcad files
>>>>>>> 9860bce4698974ae78fe2df219225feae00d8be0


 ****     CIRCUIT DESCRIPTION


******************************************************************************




** Creating circuit file "time.cir" 
** WARNING: THIS AUTOMATICALLY GENERATED FILE MAY BE OVERWRITTEN BY SUBSEQUENT SIMULATIONS

*Libraries: 
* Profile Libraries :
* Local Libraries :
* From [PSPICE NETLIST] section of C:\Cadence\SPB_Data\cdssetup\OrCAD_PSpice/16.6.0/PSpice.ini file:
.lib "nom.lib" 
.lib "C:\Cadence\Company\OrCAD_PSpice\Models\pspice_demokit.lib" 
.lib "C:\Cadence\Company\OrCAD_PSpice\Models\sample_models.lib" 

*Analysis directives: 
.TRAN  0 2.5  0 0.1 SKIPBP 
.OPTIONS ADVCONV
.PROBE64 V(alias(*)) I(alias(*)) W(alias(*)) D(alias(*)) NOISE(alias(*)) 
.INC "..\SCHEMATIC1.net" 



**** INCLUDING SCHEMATIC1.net ****
* source PLETHYSMOGRAPH AMP
V_V1         VCC 0 9Vdc
X_U2         N04263 N06271 VCC 0 OUT LM293/5_1/TI
R_R4         OUT VCC/2  1k TC=0,0 
C_C1         0 OUT  15pF  TC=0,0 
C_C2         0 VCC  100nF  TC=0,0 
X_U3A         N03027 VCC/2 VCC 0 VCC/2 TL074/301/TI
X_U3B         N03428 N03375 VCC 0 N03382 TL074/301/TI
R_R5         N03027 VCC  100k TC=0,0 
R_R6         0 N03027  100k TC=0,0 
C_C3         SENSOR N03337  2.2uF  TC=0,0 
R_R7         N03375 N03337  10k TC=0,0 
R_R8         N03382 N03375  100k TC=0,0 
R_R9         VCC/2 N03428  10k TC=0,0 
C_C5         0 N03027  100nF  TC=0,0 
R_R13         N03337 VCC/2  47k TC=0,0 
X_R15         VCC/2 N04263 N03382 POT PARAMS: SET=0.5 VALUE=10K
R_R16         N06271 N04263  1.6meg TC=0,0 
C_C6         0 N06271  0.1uF  TC=0,0 
V_V2         SENSOR 0   PWL   
+ REPEAT FOREVER  
+ FILE "C:\Users\N\Documents\GitHub\Plethysmograph\TEK0003formatted_crop.csv" 
+ ENDREPEAT

**** RESUMING time.cir ****
.END

<<<<<<< HEAD
**** 08/31/16 11:34:02 ****** PSpice 17.2.0 (March 2016) ****** ID# 0 ********

 ** Profile: "SCHEMATIC1-time"  [ c:\users\n\documents\github\plethysmograph\orcad files\plethysmograph amp\plethysmograph amp-pspice
=======
**** 08/30/16 05:35:56 ***** PSpice 16.6.0 (October 2012) ***** ID# 0 ********

 ** Profile: "SCHEMATIC1-time"  [ C:\Users\Thomas\Desktop\Mapper\it - teknologi\thered_semester\elektronik\Plethysmograph\Orcad files
>>>>>>> 9860bce4698974ae78fe2df219225feae00d8be0


 ****     Diode MODEL PARAMETERS


******************************************************************************




               X_U2.DX         X_U3A.DX        X_U3B.DX        
          IS  800.000000E-18  800.000000E-18  800.000000E-18 


<<<<<<< HEAD
**** 08/31/16 11:34:02 ****** PSpice 17.2.0 (March 2016) ****** ID# 0 ********

 ** Profile: "SCHEMATIC1-time"  [ c:\users\n\documents\github\plethysmograph\orcad files\plethysmograph amp\plethysmograph amp-pspice
=======
**** 08/30/16 05:35:56 ***** PSpice 16.6.0 (October 2012) ***** ID# 0 ********

 ** Profile: "SCHEMATIC1-time"  [ C:\Users\Thomas\Desktop\Mapper\it - teknologi\thered_semester\elektronik\Plethysmograph\Orcad files
>>>>>>> 9860bce4698974ae78fe2df219225feae00d8be0


 ****     BJT MODEL PARAMETERS


******************************************************************************




               X_U2.QIN        X_U2.QMI        X_U2.QMO        X_U2.QOC        
               PNP             NPN             NPN             NPN             
       LEVEL    1               1               1               1            
          IS  800.000000E-18  800.000000E-18  800.000000E-18  800.000000E-18 
          BF    2.000000E+03    1.002000E+03    1.000000E+03   20.290000E+03 
          NF    1               1               1               1            
          BR    1               1               1               1            
          NR    1               1               1               1            
         ISS    0               0               0               0            
          RE    0               0               0               0            
          RC    0               0               0               0            
         CJE    0               0               0               0            
         VJE     .75             .75             .75             .75         
         CJC    0               0               1.000000E-15    1.000000E-15 
         VJC     .75             .75             .75             .75         
         MJC     .33             .33             .33             .33         
        XCJC    1               1               1               1            
         CJS    0               0               0               0            
         VJS     .75             .75             .75             .75         
          TF                                                  942.600000E-12 
          TR                                  807.400000E-09  543.800000E-09 
          KF    0               0               0               0            
          AF    1               1               1               1            
          CN    2.2             2.42            2.42            2.42         
           D     .52             .87             .87             .87         


<<<<<<< HEAD
**** 08/31/16 11:34:02 ****** PSpice 17.2.0 (March 2016) ****** ID# 0 ********

 ** Profile: "SCHEMATIC1-time"  [ c:\users\n\documents\github\plethysmograph\orcad files\plethysmograph amp\plethysmograph amp-pspice
=======
**** 08/30/16 05:35:56 ***** PSpice 16.6.0 (October 2012) ***** ID# 0 ********

 ** Profile: "SCHEMATIC1-time"  [ C:\Users\Thomas\Desktop\Mapper\it - teknologi\thered_semester\elektronik\Plethysmograph\Orcad files
>>>>>>> 9860bce4698974ae78fe2df219225feae00d8be0


 ****     Junction FET MODEL PARAMETERS


******************************************************************************




               X_U3A.JX        X_U3B.JX        
               PJF             PJF             
         VTO   -1              -1            
        BETA  270.100000E-06  270.100000E-06 
          IS   15.000000E-12   15.000000E-12 

Reducing minimum delta to make the circuit converge.

          JOB ABORTED

<<<<<<< HEAD
**** 08/31/16 11:34:02 ****** PSpice 17.2.0 (March 2016) ****** ID# 0 ********

 ** Profile: "SCHEMATIC1-time"  [ c:\users\n\documents\github\plethysmograph\orcad files\plethysmograph amp\plethysmograph amp-pspice
=======
**** 08/30/16 05:35:56 ***** PSpice 16.6.0 (October 2012) ***** ID# 0 ********

 ** Profile: "SCHEMATIC1-time"  [ C:\Users\Thomas\Desktop\Mapper\it - teknologi\thered_semester\elektronik\Plethysmograph\Orcad files
>>>>>>> 9860bce4698974ae78fe2df219225feae00d8be0


 ****     JOB STATISTICS SUMMARY


******************************************************************************



<<<<<<< HEAD
  Total job time (using Solver 1)   =        8.91
=======
  Total job time (using Solver 1)   =        1.03
>>>>>>> 9860bce4698974ae78fe2df219225feae00d8be0
