
**** 08/31/16 12:42:14 ****** PSpice 17.2.0 (March 2016) ****** ID# 0 ********

 ** Profile: "SCHEMATIC1-time"  [ C:\USERS\N\DOCUMENTS\ORCAD PROJECTS\test\Plethysmograph_amp_blocks-PSpiceFiles\SCHEMATIC1\time.sim 


 ****     CIRCUIT DESCRIPTION


******************************************************************************




** Creating circuit file "time.cir" 
** WARNING: THIS AUTOMATICALLY GENERATED FILE MAY BE OVERWRITTEN BY SUBSEQUENT SIMULATIONS

*Libraries: 
* Profile Libraries :
* Local Libraries :
* From [PSPICE NETLIST] section of C:\Cadence\SPB_Data\cdssetup\OrCAD_PSpice\17.2.0\PSpice.ini file:
.lib "nom.lib" 
.lib "C:\Cadence\Company\OrCAD_PSpice\Models\pspice_demokit.lib" 
.lib "C:\Cadence\Company\OrCAD_PSpice\Models\sample_models.lib" 

*Analysis directives: 
.TRAN  0 3 0 
.OPTIONS ADVCONV
.PROBE64 V(alias(*)) I(alias(*)) W(alias(*)) D(alias(*)) NOISE(alias(*)) 
.INC "..\SCHEMATIC1.net" 



**** INCLUDING SCHEMATIC1.net ****
* source PLETHYSMOGRAPH_AMP_BLOCKS
V_V1         N06746 0   PWL   
+ REPEAT FOREVER  
+ FILE "C:\Users\N\Documents\GitHub\Plethysmograph\TEK0003formatted_crop.csv" 
+ ENDREPEAT
E_HIPASS1         N06750 0 CHEBYSHEV {V(N06746)} HP (.005Hz .5Hz) 1dB 50dB
E_LOPASS1         N06754 0 CHEBYSHEV {V(N06750)} LP (4.5Hz 50Hz) 1dB 50dB
E_GAIN1         N06562 0 VALUE {1E2 * V(N06754)}
R_R4         OUT VCC/2  1k TC=0,0 
C_C1         0 OUT  15pF  TC=0,0 
R_R16         N06610 N06562  1.6meg TC=0,0 
C_C6         0 N06610  0.1uF  TC=0,0 
X_U2         N06562 N06610 VCC 0 OUT LM293/5_1/TI

**** RESUMING time.cir ****
.END

ERROR(ORPSIM-15141): Less than 2 connections at node VCC/2.
