
**** 09/05/16 06:11:59 ***** PSpice 16.6.0 (October 2012) ***** ID# 0 ********

 ** Profile: "SCHEMATIC1-time"  [ C:\Users\Thomas\Desktop\Mapper\it - teknologi\thered_semester\elektronik\Plethysmograph\Orcad files


 ****     CIRCUIT DESCRIPTION


******************************************************************************




** Creating circuit file "time.cir" 
** WARNING: THIS AUTOMATICALLY GENERATED FILE MAY BE OVERWRITTEN BY SUBSEQUENT SIMULATIONS

*Libraries: 
* Profile Libraries :
* Local Libraries :
* From [PSPICE NETLIST] section of C:\Cadence\SPB_Data\cdssetup\OrCAD_PSpice/16.6.0/PSpice.ini file:
.lib "nom.lib" 
.lib "C:\Cadence\Company\OrCAD_PSpice\Models\pspice_demokit.lib" 
.lib "C:\Cadence\Company\OrCAD_PSpice\Models\sample_models.lib" 

*Analysis directives: 
.TRAN  0 3 0 
.OPTIONS ADVCONV
.PROBE64 V(alias(*)) I(alias(*)) W(alias(*)) D(alias(*)) NOISE(alias(*)) 
.INC "..\SCHEMATIC1.net" 



**** INCLUDING SCHEMATIC1.net ****
* source PLETHYSMOGRAPH_AMP_BLOCKS_FILTER_TS
V_V1         N06746 0   PWL   
+ REPEAT FOREVER  
+ FILE "C:\Users\N\Documents\GitHub\Plethysmograph\TEK0003formatted_crop.csv" 

ERROR(ORPSIM-15347): Cannot open input file C:\Users\N\Documents\GitHub\Plethysmograph\TEK0003formatted_crop.csv.


ABORTING SIMULATION
**** 09/05/16 06:11:59 ***** PSpice 16.6.0 (October 2012) ***** ID# 0 ********

 ** Profile: "SCHEMATIC1-time"  [ C:\Users\Thomas\Desktop\Mapper\it - teknologi\thered_semester\elektronik\Plethysmograph\Orcad files


 ****     JOB STATISTICS SUMMARY


******************************************************************************



Node counts:
  Top level (NUNODS)                =           1
  External (NCNODS)                 =           2
  Total (NUMNOD)                    =           0

Total device count (NUMEL)          =           1
  Voltage Sources (V)               =           1

Number of subcircuits (X)           =           0

Analysis statistics:
  No. total time points (NUMTTP)    =           0
  No. rejected time points (NUMRTP) =           0
  No. iterations (NUMNIT)           =           0

Load Threads                        =           1

Runtime statistics:                       Seconds      Iterations
  Readin                            =        0.00
  General setup                     =        0.00
  CMI setup                     =        0.00
  Setup                             =        0.00
  DC sweep                          =        0.00               0
  Bias point                        =        0.00               0
  AC and noise                      =        0.00               0
  Total transient analysis          =        0.00
  Output                            =        0.00
  Overhead                          =         .03
  Total job time                    =         .80
