
**** 09/22/16 21:27:16 ****** PSpice 17.2.0 (March 2016) ****** ID# 0 ********

 ** Profile: "SCHEMATIC1-time"  [ c:\users\n\documents\github\plethysmograph\orcad files\plethysmograph_tl074\plethysmograph_amp_bloc


 ****     CIRCUIT DESCRIPTION


******************************************************************************




** Creating circuit file "time.cir" 
** WARNING: THIS AUTOMATICALLY GENERATED FILE MAY BE OVERWRITTEN BY SUBSEQUENT SIMULATIONS

*Libraries: 
* Profile Libraries :
* Local Libraries :
* From [PSPICE NETLIST] section of C:\Cadence\SPB_Data\cdssetup\OrCAD_PSpice\17.2.0\PSpice.ini file:
.lib "nom.lib" 
.lib "C:\Cadence\Company\OrCAD_PSpice\Models\pspice_demokit.lib" 
.lib "C:\Cadence\Company\OrCAD_PSpice\Models\sample_models.lib" 

*Analysis directives: 
.TRAN  0 3 0 SKIPBP 
.OPTIONS ADVCONV
.PROBE64 V(alias(*)) I(alias(*)) W(alias(*)) D(alias(*)) NOISE(alias(*)) 
.INC "..\SCHEMATIC1.net" 



**** INCLUDING SCHEMATIC1.net ****
* source PLETHYSMOGRAPH_AMP_BLOCKS_FILTER_TL074
V_V1         N06746 0   PWL   
+ REPEAT FOREVER  
+ FILE "C:\Users\N\Documents\GitHub\Plethysmograph\TEK0003formatted_crop.csv" 
+ ENDREPEAT
R_R4         OUT 5V  1k TC=0,0 
R_R16         N06610 N07596  10k TC=0,0 
C_C6         5V N06610  10uF  TC=0,0 
X_U2         N07605 N06610 VCC 0 OUT LM293/5_1/TI
R_R5         N07125 VCC  82k TC=0,0 
V_V2         VCC 0 9Vdc
C_C5         0 N07125  100nF  TC=0,0 
X_U3A         N07125 5V VCC 0 5V TL074/301/TI
R_R6         0 N07125  100k TC=0,0 
C_C2         0 VCC  100nF  TC=0,0 
R_R17         N07605 N07596  10k TC=0,0 
C_C1         N06746 N43229 C_C1 10uF  TC=0,0 
.model        C_C1 CAP C=1 DEV=5% TC1=0 TC2=0 VC1=0 VC2=0
R_R34         N43429 N43443 R_R34 120k TC=0,0 
.model        R_R34 RES R=1 DEV=5% TC1=0 TC2=0
R_R18         N43219 N43429 R_R18 120k TC=0,0 
.model        R_R18 RES R=1 DEV=5% TC1=0 TC2=0
C_C17         N43409 N43429 C_C17 330n  TC=0,0 
.model        C_C17 CAP C=1 DEV=5% TC1=0 TC2=0 VC1=0 VC2=0
C_C13         5V N43443 C_C13 330n  TC=0,0 
.model        C_C13 CAP C=1 DEV=5% TC1=0 TC2=0 VC1=0 VC2=0
R_R1         5V N43229 R_R1 33k TC=0,0 
.model        R_R1 RES R=1 DEV=5% TC1=0 TC2=0
R_R35         N47818 N07596  22k TC=0,0 
R_R36         5V N47818  1k TC=0,0 
X_U4A         N43229 N43219 VCC 0 N43219 TL074/301/TI
X_U4B         N43443 N43397 VCC 0 N43409 TL074/301/TI
X_U4C         N43409 N47818 VCC 0 N07596 TL074/301/TI
R_R38         N43397 N51562 R_R38 4.7k TC=0,0 
.model        R_R38 RES R=1 DEV=5% TC1=0 TC2=0
R_R39         5V N43397 R_R39 10k TC=0,0 
.model        R_R39 RES R=1 DEV=5% TC1=0 TC2=0
X_R40         N51562 N43409 N43409 POT PARAMS: SET=0.5 VALUE=2K

**** RESUMING time.cir ****
.END

**** 09/22/16 21:27:16 ****** PSpice 17.2.0 (March 2016) ****** ID# 0 ********

 ** Profile: "SCHEMATIC1-time"  [ c:\users\n\documents\github\plethysmograph\orcad files\plethysmograph_tl074\plethysmograph_amp_bloc


 ****     Diode MODEL PARAMETERS


******************************************************************************




               X_U2.DX         X_U3A.DX        X_U4A.DX        X_U4B.DX        
          IS  800.000000E-18  800.000000E-18  800.000000E-18  800.000000E-18 


               X_U4C.DX        
          IS  800.000000E-18 


**** 09/22/16 21:27:16 ****** PSpice 17.2.0 (March 2016) ****** ID# 0 ********

 ** Profile: "SCHEMATIC1-time"  [ c:\users\n\documents\github\plethysmograph\orcad files\plethysmograph_tl074\plethysmograph_amp_bloc


 ****     BJT MODEL PARAMETERS


******************************************************************************




               X_U2.QIN        X_U2.QMI        X_U2.QMO        X_U2.QOC        
               PNP             NPN             NPN             NPN             
       LEVEL    1               1               1               1            
          IS  800.000000E-18  800.000000E-18  800.000000E-18  800.000000E-18 
          BF    2.000000E+03    1.002000E+03    1.000000E+03   20.290000E+03 
          NF    1               1               1               1            
          BR    1               1               1               1            
          NR    1               1               1               1            
         ISS    0               0               0               0            
          RE    0               0               0               0            
          RC    0               0               0               0            
         CJE    0               0               0               0            
         VJE     .75             .75             .75             .75         
         CJC    0               0               1.000000E-15    1.000000E-15 
         VJC     .75             .75             .75             .75         
         MJC     .33             .33             .33             .33         
        XCJC    1               1               1               1            
         CJS    0               0               0               0            
         VJS     .75             .75             .75             .75         
          TF                                                  942.600000E-12 
          TR                                  807.400000E-09  543.800000E-09 
          KF    0               0               0               0            
          AF    1               1               1               1            
          CN    2.2             2.42            2.42            2.42         
           D     .52             .87             .87             .87         


**** 09/22/16 21:27:16 ****** PSpice 17.2.0 (March 2016) ****** ID# 0 ********

 ** Profile: "SCHEMATIC1-time"  [ c:\users\n\documents\github\plethysmograph\orcad files\plethysmograph_tl074\plethysmograph_amp_bloc


 ****     Junction FET MODEL PARAMETERS


******************************************************************************




               X_U3A.JX        X_U4A.JX        X_U4B.JX        X_U4C.JX        
               PJF             PJF             PJF             PJF             
         VTO   -1              -1              -1              -1            
        BETA  270.100000E-06  270.100000E-06  270.100000E-06  270.100000E-06 
          IS   15.000000E-12   15.000000E-12   15.000000E-12   15.000000E-12 


**** 09/22/16 21:27:16 ****** PSpice 17.2.0 (March 2016) ****** ID# 0 ********

 ** Profile: "SCHEMATIC1-time"  [ c:\users\n\documents\github\plethysmograph\orcad files\plethysmograph_tl074\plethysmograph_amp_bloc


 ****     Resistor MODEL PARAMETERS


******************************************************************************




               R_R34           R_R18           R_R1            R_R38           
           R    1               1               1               1            


               R_R39           
           R    1            


**** 09/22/16 21:27:16 ****** PSpice 17.2.0 (March 2016) ****** ID# 0 ********

 ** Profile: "SCHEMATIC1-time"  [ c:\users\n\documents\github\plethysmograph\orcad files\plethysmograph_tl074\plethysmograph_amp_bloc


 ****     Capacitor MODEL PARAMETERS


******************************************************************************




               C_C1            C_C17           C_C13           
           C    1               1               1            



          JOB CONCLUDED

**** 09/22/16 21:27:16 ****** PSpice 17.2.0 (March 2016) ****** ID# 0 ********

 ** Profile: "SCHEMATIC1-time"  [ c:\users\n\documents\github\plethysmograph\orcad files\plethysmograph_tl074\plethysmograph_amp_bloc


 ****     JOB STATISTICS SUMMARY


******************************************************************************



  Total job time (using Solver 1)   =        1.05
