
**** 08/30/16 08:22:15 ***** PSpice 16.6.0 (October 2012) ***** ID# 0 ********

 ** Profile: "SCHEMATIC1-freq"  [ C:\Users\Thomas\Desktop\Mapper\it - teknologi\thered_semester\elektronik\Plethysmograph\Orcad files


 ****     CIRCUIT DESCRIPTION


******************************************************************************




** Creating circuit file "freq.cir" 
** WARNING: THIS AUTOMATICALLY GENERATED FILE MAY BE OVERWRITTEN BY SUBSEQUENT SIMULATIONS

*Libraries: 
* Profile Libraries :
* Local Libraries :
* From [PSPICE NETLIST] section of C:\Cadence\SPB_Data\cdssetup\OrCAD_PSpice/16.6.0/PSpice.ini file:
.lib "nom.lib" 
.lib "C:\Cadence\Company\OrCAD_PSpice\Models\pspice_demokit.lib" 
.lib "C:\Cadence\Company\OrCAD_PSpice\Models\sample_models.lib" 

*Analysis directives: 
.AC DEC 10000 0 1k
--------------$
ERROR(ORPSIM-16103): Invalid value
.OPTIONS ADVCONV
.PROBE64 V(alias(*)) I(alias(*)) W(alias(*)) D(alias(*)) NOISE(alias(*)) 
.INC "..\SCHEMATIC1.net" 



**** INCLUDING SCHEMATIC1.net ****
* source PLAT_BANDPASS
V_V3         N25953 0  AC 1
+SIN 0 1 2 0 0 0
V_V2         V- 0 -15
X_U1A         N27011 0 V+ V- N27228 LM324
V_V1         V+ 0 15
C_C1         N25953 N27011 C_C1 0.001  TC=0,0 
.model        C_C1 CAP C=1 DEV=5% TC1=0 TC2=0 VC1=0 VC2=0
R_R1         0 N27011 R_R1 330 TC=0,0 
.model        R_R1 RES R=1 DEV=5% TC1=0 TC2=0
R_R2         N27228 N27232 R_R2 470 TC=0,0 
.model        R_R2 RES R=1 DEV=5% TC1=0 TC2=0
C_C2         0 N27232 C_C2 100u  TC=0,0 
.model        C_C2 CAP C=1 DEV=5% TC1=0 TC2=0 VC1=0 VC2=0

**** RESUMING freq.cir ****
.END
